Circuit: * E:\LTSpice\Upload_2_dead\cliper2\clamper.asc

Limiting rise time of source v1 to 1
Limiting fall time of source v1 to 1
Direct Newton iteration for .op point succeeded.

Date: Sat Dec 29 08:27:12 2018
Total elapsed time: 0.062 seconds.

tnom = 27
temp = 27
method = modified trap
totiter = 2464
traniter = 2460
tranpoints = 1153
accept = 1128
rejected = 25
matrix size = 5
fillins = 0
solver = Normal
Matrix Compiler1: 114 bytes object code size  0.0/0.0/[0.0]
Matrix Compiler2: 301 bytes object code size  0.1/0.1/[0.0]

