Circuit: * E:\LTSpice\Upload_2_dead\transistor\common base npn\Draft1.asc

Direct Newton iteration for .op point succeeded.

Date: Sat Dec 29 09:29:53 2018
Total elapsed time: 0.094 seconds.

tnom = 27
temp = 27
method = modified trap
totiter = 2166
traniter = 2159
tranpoints = 1080
accept = 1052
rejected = 28
matrix size = 12
fillins = 0
solver = Normal
Matrix Compiler1: 660 bytes object code size  0.4/0.2/[0.1]
Matrix Compiler2: off  [0.1]/0.2/0.2

