Circuit: * E:\LTSpice\Upload_2_dead\clamper1\clamper.asc

Limiting rise time of source v1 to 1
Limiting fall time of source v1 to 1
Direct Newton iteration for .op point succeeded.

Date: Sat Dec 29 09:02:43 2018
Total elapsed time: 0.031 seconds.

tnom = 27
temp = 27
method = modified trap
totiter = 2390
traniter = 2362
tranpoints = 1151
accept = 1125
rejected = 26
matrix size = 5
fillins = 0
solver = Normal
Matrix Compiler1:       8 opcodes  0.1/[0.0]/0.0
Matrix Compiler2: 295 bytes object code size  0.1/0.1/[0.1]

