Circuit: * E:\LTSpice\Upload_2_dead\clamper1\Draft1.asc

Direct Newton iteration for .op point succeeded.

Date: Sat Dec 29 09:13:27 2018
Total elapsed time: 0.094 seconds.

tnom = 27
temp = 27
method = modified trap
totiter = 2178
traniter = 2158
tranpoints = 1080
accept = 1052
rejected = 28
matrix size = 13
fillins = 0
solver = Normal
Matrix Compiler1:      39 opcodes  0.4/[0.1]/0.1
Matrix Compiler2: 947 bytes object code size  0.2/0.3/[0.2]

