Circuit: * E:\LTSpice\Upload\DiffernceAmp_sch.asc

Direct Newton iteration failed to find .op point.  (Use ".option noopiter" to skip.)
Starting Gmin stepping
Gmin = 10
Gmin = 1.07374
vernier = 0.5
vernier = 0.25
vernier = 0.125
vernier = 0.0625
Gmin = 1.2061
vernier = 0.0833333
vernier = 0.0416667
Gmin = 1.07645
vernier = 0.0208333
vernier = 0.0104167
Gmin = 1.05702
vernier = 0.00520833
vernier = 0.00694444
vernier = 0.00347222
Gmin = 1.04743
vernier = 0.00462963
vernier = 0.00231481
Gmin = 1.03989
vernier = 0.00308642
vernier = 0.00154321
Gmin = 1.03469
vernier = 0.00205761
vernier = 0.00102881
Gmin = 1.03097
vernier = 0.00137174
Gmin = 1.02788
vernier = 0.00182899
vernier = 0.000914493
vernier = 0.00121932
Gmin = 1.02573
vernier = 0.000609662
vernier = 0.000812882
Gmin = 1.02443
vernier = 0.00108384
vernier = 0.000541921
vernier = 0.000722562
Gmin = 1.02313
vernier = 0.000963415
vernier = 0.000481708
Gmin = 1.02184
vernier = 0.000642277
vernier = 0.000481708
Gmin = 1.02069
vernier = 0.000642277
vernier = 0.000481707
Gmin = 1.01971
vernier = 0.000642276
vernier = 0.000481707
vernier = 0.000642276
vernier = 0.000481707
Gmin = 1.01897
Gmin = 0
Gmin stepping failed

Starting source stepping with srcstepmethod=0
Source Step = 3.0303%
Source Step = 33.3333%
Source Step = 63.6364%
Source Step = 72.7332%
Source Step = 72.7628%
Source Step = 72.7924%
Source Step = 72.822%
Source Step = 72.8516%
Source Step = 72.8812%
vernier = 0.00146484
Source Step = 72.9211%
Source Step = 72.9655%
Source Step = 73.0099%
Source Step = 73.0543%
Source Step = 73.0987%
vernier = 0.00219727
Source Step = 73.1564%
Source Step = 73.223%
Source Step = 73.2895%
Source Step = 73.3561%
Source Step = 73.4227%
vernier = 0.0032959
Source Step = 73.5059%
Source Step = 73.6058%
Source Step = 73.7057%
Source Step = 73.8056%
Source Step = 73.9054%
vernier = 0.00494385
Source Step = 74.0253%
Source Step = 74.1751%
Source Step = 74.3249%
Source Step = 74.4747%
Source Step = 74.6245%
vernier = 0.00741577
Source Step = 74.7968%
Source Step = 75.0215%
Source Step = 75.2463%
Source Step = 75.471%
Source Step = 75.6957%
vernier = 0.0111237
Source Step = 75.9429%
Source Step = 76.28%
Source Step = 76.6171%
Source Step = 76.9541%
Source Step = 77.2912%
vernier = 0.0166855
Source Step = 77.6452%
Source Step = 78.1508%
Source Step = 78.6564%
Source Step = 79.162%
Source Step = 79.6676%
Source Step = 80.1733%
vernier = 0.0250282
Source Step = 80.9317%
Source Step = 81.6901%
Source Step = 82.4486%
Source Step = 83.207%
Source Step = 83.9654%
vernier = 0.0375423
Source Step = 85.0651%
Source Step = 86.2028%
Source Step = 87.3404%
Source Step = 88.4781%
Source Step = 89.6157%
vernier = 0.0563135
Source Step = 91.2084%
Source Step = 92.9149%
Source Step = 94.6214%
Source Step = 96.3278%
Source Step = 98.0343%
vernier = 0.0844703
Source stepping succeeded in finding the operating point.


Date: Fri Dec 28 16:25:45 2018
Total elapsed time: 3.266 seconds.

tnom = 27
temp = 27
method = modified trap
totiter = 63250
traniter = 49155
tranpoints = 10688
accept = 7958
rejected = 2730
matrix size = 132
fillins = 238
solver = Normal
Thread vector: 10.0/6.4[2] 3.5/2.5[2] 1.1/1.4[1] 1.0/1.5[1]  2592/500
Matrix Compiler1: 17.24 KB object code size  6.3/2.9/[1.5]
Matrix Compiler2: 13.88 KB object code size  3.5/2.8/[1.2]

