Circuit: * E:\LTSpice\Upload\Differntiator_sch.asc

Direct Newton iteration for .op point succeeded.

Date: Fri Dec 28 16:08:44 2018
Total elapsed time: 1.110 seconds.

tnom = 27
temp = 27
method = modified trap
totiter = 65527
traniter = 65486
tranpoints = 27444
accept = 19284
rejected = 8160
matrix size = 129
fillins = 116
solver = Normal
Thread vector: 14.8/7.0[2] 3.4/2.6[2] 0.9/0.8[2] 1.2/3.7[1]  2592/500
Matrix Compiler1: 11.01 KB object code size  4.5/2.0/[0.9]
Matrix Compiler2: off  [1.6]/2.4/2.2

