Circuit: * E:\LTSpice\Upload\Integrator_sch.asc

Direct Newton iteration failed to find .op point.  (Use ".option noopiter" to skip.)
Starting Gmin stepping
Gmin = 10
Gmin = 1.07374
vernier = 0.5
vernier = 0.25
vernier = 0.125
vernier = 0.0625
Gmin = 1.2061
vernier = 0.0833333
vernier = 0.0416667
Gmin = 1.07645
vernier = 0.0208333
vernier = 0.0104167
Gmin = 1.05702
vernier = 0.00520833
vernier = 0.00694444
vernier = 0.00347222
Gmin = 1.04743
vernier = 0.00462963
vernier = 0.00231481
Gmin = 1.03989
vernier = 0.00308642
vernier = 0.00154321
Gmin = 1.03469
vernier = 0.00205761
vernier = 0.00102881
Gmin = 1.03097
vernier = 0.00137174
Gmin = 1.02788
vernier = 0.00182899
vernier = 0.000914493
vernier = 0.00121932
Gmin = 1.02573
vernier = 0.000609662
vernier = 0.000812882
Gmin = 1.02443
vernier = 0.00108384
vernier = 0.000541921
vernier = 0.000722562
Gmin = 1.02313
vernier = 0.000963415
vernier = 0.000481708
Gmin = 1.02184
vernier = 0.000642277
vernier = 0.000481708
Gmin = 1.02069
vernier = 0.000642277
vernier = 0.000481707
Gmin = 1.01971
vernier = 0.000642276
vernier = 0.000481707
vernier = 0.000642276
vernier = 0.000481707
Gmin = 1.01897
Gmin = 0
Gmin stepping failed

Starting source stepping with srcstepmethod=0
Source Step = 3.0303%
Source Step = 33.3333%
Source Step = 63.6364%
Source Step = 93.9394%
Source stepping succeeded in finding the operating point.

Heightened Def Con from 0.0330751 to 0.0330751
Heightened Def Con from 0.0461203 to 0.0461203
Heightened Def Con from 0.0461203 to 0.0461203
Heightened Def Con from 0.0461203 to 0.0461203
Heightened Def Con from 0.0481203 to 0.0481203
Heightened Def Con from 0.0481203 +to 0.0481203
Heightened Def Con from 0.0481203 to 0.0481203
Heightened Def Con from 0.0481203 to 0.0481203
Heightened Def Con from 0.0481203 to 0.0481203
Heightened Def Con from 0.0481203 to 0.0481203
Heightened Def Con from 0.0481203 to 0.0481203
Heightened Def Con from 0.0481203 to 0.0481203
Heightened Def Con from 0.0481203 to 0.0481203
Heightened Def Con from 0.0481203 to 0.0481203
Heightened Def Con from 0.0481203 to 0.0481203
Heightened Def Con from 0.0481203 to 0.0481203
Heightened Def Con from 0.0481203 to 0.0481203
Heightened Def Con from 0.0481203 +to 0.0481203
Heightened Def Con from 0.0481203 to 0.0481203
Heightened Def Con from 0.0550752 to 0.0550752

Date: Fri Dec 28 16:23:11 2018
Total elapsed time: 3.265 seconds.

tnom = 27
temp = 27
method = modified trap
totiter = 92549
traniter = 81401
tranpoints = 19602
accept = 14211
rejected = 5413
matrix size = 129
fillins = 237
solver = Normal
Thread vector: 10.4/7.9[2] 3.6/2.7[2] 1.1/1.4[1] 0.8/27.3[1]  2592/500
Matrix Compiler1: 16.99 KB object code size  5.9/2.7/[1.5]
Matrix Compiler2: 13.65 KB object code size  2.4/3.2/[1.3]

