Circuit: * E:\LTSpice\Upload\Inverting_sch.asc

Direct Newton iteration failed to find .op point.  (Use ".option noopiter" to skip.)
Starting Gmin stepping
Gmin = 10
Gmin = 1.07374
vernier = 0.5
vernier = 0.25
vernier = 0.125
vernier = 0.0625
Gmin = 1.12184
vernier = 0.03125
vernier = 0.015625
Gmin = 1.07071
vernier = 0.0078125
vernier = 0.0104167
Gmin = 1.04934
vernier = 0.00520833
vernier = 0.00694444
vernier = 0.00347222
Gmin = 1.04344
vernier = 0.00462963
vernier = 0.00231481
Gmin = 1.03772
vernier = 0.00308642
vernier = 0.00154321
Gmin = 1.03333
vernier = 0.00205761
vernier = 0.00102881
Gmin = 1.03015
vernier = 0.00137174
vernier = 0.00182899
vernier = 0.000914493
Gmin = 1.02753
vernier = 0.00121932
vernier = 0.000609662
Gmin = 1.02565
vernier = 0.000812882
vernier = 0.00108384
Gmin = 1.02366
vernier = 0.000541921
vernier = 0.000722562
Gmin = 1.0225
vernier = 0.000963415
vernier = 0.000481708
vernier = 0.000642277
Gmin = 1.02135
vernier = 0.000481708
vernier = 0.000642277
Gmin = 1.02025
vernier = 0.000481707
vernier = 0.000642276
vernier = 0.000481707
Gmin = 1.01955
vernier = 0.000642276
vernier = 0.000481707
Gmin = 0
Gmin stepping failed

Starting source stepping with srcstepmethod=0
Source Step = 3.0303%
Source Step = 33.3333%
Source Step = 63.6364%
Source Step = 93.9394%
Source stepping succeeded in finding the operating point.


Date: Fri Dec 28 16:06:28 2018
Total elapsed time: 2.048 seconds.

tnom = 27
temp = 27
method = modified trap
totiter = 21286
traniter = 10391
tranpoints = 2558
accept = 2168
rejected = 390
matrix size = 129
fillins = 236
solver = Normal
Thread vector: 10.0/6.7[2] 3.5/2.7[2] 1.6/1.8[1] 0.9/1.5[1]  2592/500
Matrix Compiler1: 16.96 KB object code size  6.1/2.7/[1.4]
Matrix Compiler2: 13.62 KB object code size  20.2/2.7/[1.2]

