Circuit: * E:\LTSpice\Draft4.asc for V2 active V(n004): 0.742478 voltage v1+ v2 = V(n004): 2.87026 voltage

Direct Newton iteration for .op point succeeded.

Date: Fri Dec 28 15:18:39 2018
Total elapsed time: 0.016 seconds.

tnom = 27
temp = 27
method = trap
totiter = 3
traniter = 0
tranpoints = 0
accept = 0
rejected = 0
matrix size = 7
fillins = 1
solver = Normal
Matrix Compiler1: 250 bytes object code size
Matrix Compiler2: 467 bytes object code size
