Circuit: * E:\LTSpice\Upload\q1\q1,2_sch.asc

Direct Newton iteration for .op point succeeded.
.step r=50
.step r=90
.step r=130
.step r=170
.step r=210
.step r=220

Date: Fri Dec 28 15:52:40 2018
Total elapsed time: 0.220 seconds.

tnom = 27
temp = 27
method = modified trap
totiter = 2085
traniter = 2082
tranpoints = 1042
accept = 1042
rejected = 0
matrix size = 5
fillins = 0
solver = Normal
Matrix Compiler1: 150 bytes object code size  0.2/0.1/[0.0]
Matrix Compiler2: off  [0.0]/0.1/0.1

