Circuit: * E:\LTSpice\Upload\q1\q1,2_sch.asc

Direct Newton iteration for .op point succeeded.

Date: Fri Dec 28 15:34:38 2018
Total elapsed time: 0.000 seconds.

tnom = 27
temp = 27
method = trap
totiter = 3
traniter = 0
tranpoints = 0
accept = 0
rejected = 0
matrix size = 4
fillins = 0
solver = Normal
Matrix Compiler1: 82 bytes object code size
Matrix Compiler2: 214 bytes object code size
