Circuit: * E:\LTSpice\Upload_3_dead\Draft1.asc

Direct Newton iteration failed to find .op point.  (Use ".option noopiter" to skip.)
Starting Gmin stepping
Gmin = 10
vernier = 0.5
Gmin = 1.67772
vernier = 0.25
vernier = 0.125
vernier = 0.0625
vernier = 0.03125
Gmin = 1.56679
vernier = 0.0416667
Gmin = 1.42721
vernier = 0.0555555
vernier = 0.074074
Gmin = 1.22088
vernier = 0.037037
vernier = 0.0493827
Gmin = 1.11694
vernier = 0.0246913
vernier = 0.0123457
Gmin = 1.06664
vernier = 0.0164609
vernier = 0.00823044
Gmin = 1.04494
vernier = 0.00411522
vernier = 0.00548696
vernier = 0.00274348
Gmin = 1.03958
vernier = 0.00365797
vernier = 0.00182899
Gmin = 1.03437
vernier = 0.00243865
vernier = 0.00121932
Gmin = 1.03028
vernier = 0.00162576
vernier = 0.00216769
Gmin = 1.02628
vernier = 0.00108384
vernier = 0.00144512
vernier = 0.000722562
Gmin = 1.02507
vernier = 0.000963415
vernier = 0.00128455
Gmin = 1.02271
vernier = 0.000642277
vernier = 0.000856369
vernier = 0.000428184
Gmin = 1.02178
vernier = 0.000570912
Gmin = 1.0205
vernier = 0.000761216
vernier = 0.000570912
vernier = 0.000761216
vernier = 0.000570912
Gmin = 1.01963
vernier = 0.000761216
vernier = 0.000570912
vernier = 0.000428184
Gmin = 1.01879
vernier = 0.000570912
vernier = 0.000428184
Gmin = 1.01792
vernier = 0.000570912
vernier = 0.000428184
vernier = 0.000570912
vernier = 0.000428184
Gmin = 1.01727
Gmin = 0
Gmin stepping failed

Starting source stepping with srcstepmethod=0
Source Step = 3.0303%
Source Step = 33.3333%
Source Step = 63.6364%
Source Step = 93.9394%
Source stepping succeeded in finding the operating point.

Heightened Def Con from 0.001075 to 0.001075

Date: Wed Apr 10 09:37:56 2019
Total elapsed time: 2.547 seconds.

tnom = 27
temp = 27
method = modified trap
totiter = 65596
traniter = 54088
tranpoints = 12991
accept = 9612
rejected = 3380
matrix size = 130
fillins = 229
solver = Normal
Thread vector: 10.3/6.2[2] 3.5/2.7[2] 1.4/1.4[1] 0.9/1.5[1]  2592/500
Matrix Compiler1: 16.67 KB object code size  5.8/2.9/[1.5]
Matrix Compiler2: 13.28 KB object code size  15.8/3.0/[1.3]

