Circuit: * E:\LTSpice\Upload_3_dead\mosfet.asc

Ignoring BSIM parameter XL
Ignoring BSIM parameter XW
Ignoring BSIM parameter CTA
Ignoring BSIM parameter CTP
Ignoring BSIM parameter PTA
Ignoring BSIM parameter PTP
Limiting fall time of source v2 to 1.9984e-016
Warning: Pd = 0 is less than W.
Warning: Ps = 0 is less than W.
Direct Newton iteration for .op point succeeded.
.step v1=2
.step v1=4
.step v1=6
.step v1=8
.step v1=10

Date: Wed Jan 23 17:18:29 2019
Total elapsed time: 0.593 seconds.

tnom = 27
temp = 27
method = modified trap
totiter = 2093
traniter = 2088
tranpoints = 1045
accept = 1045
rejected = 0
matrix size = 4
fillins = 0
solver = Normal
Matrix Compiler1: off  0.1/[0.1]/0.1
Matrix Compiler2: 216 bytes object code size  0.0/0.1/[0.0]

