Circuit: * E:\LTSpice\Upload_2_dead\transistor\base.asc

Direct Newton iteration for .op point succeeded.

Date: Sat Dec 29 09:43:39 2018
Total elapsed time: 0.094 seconds.

tnom = 27
temp = 27
method = modified trap
totiter = 2165
traniter = 2158
tranpoints = 1080
accept = 1052
rejected = 28
matrix size = 12
fillins = 0
solver = Normal
Matrix Compiler1: 624 bytes object code size  0.4/0.2/[0.1]
Matrix Compiler2: off  [0.1]/0.1/0.1

